@<TRIPOS>MOLECULE
Molecule: 1
   20     0     1     0     0
SMALL
GASTEIGER


@<TRIPOS>ATOM
      1 C            -0.9487    5.4406    3.3403 Du       1 LIG       -0.1051
      2 C            -1.2820    3.9661    3.5177 Du       1 LIG        0.3519
      3 O            -0.0635    3.2263    3.2919 Du       1 LIG       -0.4544
      4 C            -0.1494    1.8706    3.4043 Du       1 LIG        0.6471
      5 O            -1.1532    1.2263    3.6760 Du       1 LIG       -0.5390
      6 C             1.1939    1.2609    3.1439 Du       1 LIG       -0.1501
      7 O            -2.2945    3.5966    2.5599 Du       1 LIG       -0.4544
      8 C            -3.5845    3.9202    2.8588 Du       1 LIG        0.6471
      9 O            -3.9781    4.4963    3.8640 Du       1 LIG       -0.5390
     10 C            -4.4827    3.4599    1.7516 Du       1 LIG       -0.1501
     11 H            -1.8346    6.0633    3.4990 Du       1 LIG        0.0603
     12 H            -0.5421    5.6416    2.3447 Du       1 LIG        0.0603
     13 H            -0.1937    5.7534    4.0704 Du       1 LIG        0.0603
     14 H            -1.6206    3.7797    4.5438 Du       1 LIG        0.1007
     15 H             1.7519    1.1786    4.0796 Du       1 LIG        0.0775
     16 H             1.0718    0.2781    2.6806 Du       1 LIG        0.0775
     17 H             1.7565    1.9018    2.4595 Du       1 LIG        0.0775
     18 H            -4.8223    2.4403    1.9493 Du       1 LIG        0.0775
     19 H            -5.3334    4.1385    1.6574 Du       1 LIG        0.0775
     20 H            -3.9284    3.4652    0.8087 Du       1 LIG        0.0775
@<TRIPOS>SUBSTRUCTURE
     1 LIG         1  RESIDUE
