@<TRIPOS>MOLECULE
Molecule: 1
   39     0     1     0     0
SMALL
GASTEIGER


@<TRIPOS>ATOM
      1 C            -5.9010    4.6440    1.6640 Du       1 LIG       -0.0841
      2 C            -4.6960    3.7220    1.5610 Du       1 LIG       -0.0874
      3 C            -3.5860    4.1430    2.5260 Du       1 LIG       -0.0734
      4 C            -2.3630    3.2360    2.4450 Du       1 LIG        0.1548
      5 N            -1.3230    3.6340    3.3520 Du       1 LIG       -0.5990
      6 C            -0.7510    4.9800    3.2250 Du       1 LIG        0.1748
      7 C            -0.1370    5.1460    1.8890 Du       1 LIG       -0.1091
      8 C            -0.8530    2.7750    4.3600 Du       1 LIG        0.0576
      9 C             0.2100    1.9110    4.1000 Du       1 LIG       -0.5617
     10 C             0.6760    1.0570    5.1000 Du       1 LIG       -0.1580
     11 C             0.0790    1.0680    6.3600 Du       1 LIG       -0.2673
     12 C            -0.9850    1.9320    6.6200 Du       1 LIG       -0.1580
     13 C            -1.4510    2.7850    5.6200 Du       1 LIG       -0.5617
     14 N            -2.5380    3.6560    5.9150 Du       1 LIG       -0.0588
     15 O            -3.7070    3.2540    5.7110 Du       1 LIG       -0.4480
     16 O            -2.2920    4.7970    6.3690 Du       1 LIG       -0.4480
     17 C             0.5770    0.1560    7.4300 Du       1 LIG        0.6852
     18 F             1.6210   -0.6320    7.0350 Du       1 LIG       -0.3056
     19 F             1.0260    0.8100    8.5410 Du       1 LIG       -0.3056
     20 F            -0.3830   -0.7060    7.8750 Du       1 LIG       -0.3056
     21 N             0.8410    1.8770    2.8240 Du       1 LIG       -0.0588
     22 O             1.8160    2.6350    2.6120 Du       1 LIG       -0.4480
     23 O             0.4020    1.0910    1.9520 Du       1 LIG       -0.4480
     24 H            -6.6910    4.3370    0.9710 Du       1 LIG        0.0094
     25 H            -6.3110    4.6200    2.6790 Du       1 LIG        0.0094
     26 H            -5.6250    5.6780    1.4340 Du       1 LIG        0.0094
     27 H            -5.0100    2.6950    1.7810 Du       1 LIG        0.0357
     28 H            -4.3270    3.7350    0.5290 Du       1 LIG        0.0357
     29 H            -3.2930    5.1800    2.3190 Du       1 LIG        0.0182
     30 H            -3.9730    4.1160    3.5520 Du       1 LIG        0.0182
     31 H            -1.9420    3.2260    1.4340 Du       1 LIG        0.0512
     32 H            -2.6400    2.2100    2.7080 Du       1 LIG        0.0512
     33 H            -1.5710    5.6730    3.3820 Du       1 LIG        0.0387
     34 H            -0.0230    5.0760    4.0240 Du       1 LIG        0.0387
     35 H             0.2970    6.1450    1.7700 Du       1 LIG        0.0051
     36 H             0.6360    4.3920    1.7070 Du       1 LIG        0.0051
     37 H            -0.9160    5.0240    1.1260 Du       1 LIG        0.0051
     38 H             1.5070    0.3820    4.9030 Du       1 LIG        0.0410
     39 H            -1.4480    1.9350    7.6050 Du       1 LIG        0.0410
@<TRIPOS>SUBSTRUCTURE
     1 LIG         1  RESIDUE
