@<TRIPOS>MOLECULE
Molecule: 1
   24     0     1     0     0
SMALL
GASTEIGER


@<TRIPOS>ATOM
      1 C            -0.6220   -2.5760    0.6710 Du       1 LIG       -0.0900
      2 C             0.4200   -1.6680    1.3220 Du       1 LIG       -0.0656
      3 C             0.8700   -0.5730    0.3460 Du       1 LIG       -0.0733
      4 C             1.8750    0.3800    0.9910 Du       1 LIG       -0.0733
      5 C             1.3240    0.9950    2.2840 Du       1 LIG       -0.0656
      6 C             0.8740   -0.1000    3.2590 Du       1 LIG       -0.0733
      7 C            -0.1310   -1.0530    2.6150 Du       1 LIG       -0.0733
      8 C             2.3640    1.9030    2.9350 Du       1 LIG       -0.0900
      9 H            -0.2280   -3.0140   -0.2510 Du       1 LIG        0.0328
     10 H            -0.9000   -3.3900    1.3470 Du       1 LIG        0.0328
     11 H            -1.5250   -2.0100    0.4240 Du       1 LIG        0.0328
     12 H             1.2920   -2.2850    1.5770 Du       1 LIG        0.0468
     13 H             1.3230   -1.0280   -0.5420 Du       1 LIG        0.0393
     14 H             0.0000    0.0000    0.0000 Du       1 LIG        0.0393
     15 H             2.8040   -0.1650    1.2020 Du       1 LIG        0.0393
     16 H             2.1280    1.1730    0.2780 Du       1 LIG        0.0393
     17 H             0.4510    1.6100    2.0290 Du       1 LIG        0.0468
     18 H             1.7440   -0.6740    3.6040 Du       1 LIG        0.0393
     19 H             0.4210    0.3540    4.1480 Du       1 LIG        0.0393
     20 H            -0.3840   -1.8470    3.3270 Du       1 LIG        0.0393
     21 H            -1.0600   -0.5080    2.4030 Du       1 LIG        0.0393
     22 H             1.9590    2.3320    3.8500 Du       1 LIG        0.0328
     23 H             2.6300    2.7080    2.2520 Du       1 LIG        0.0328
     24 H             3.2570    1.3290    3.1750 Du       1 LIG        0.0328
@<TRIPOS>SUBSTRUCTURE
     1 LIG         1  RESIDUE
