@<TRIPOS>MOLECULE
Molecule: 1
   20     0     1     0     0
SMALL
GASTEIGER


@<TRIPOS>ATOM
      1 C             0.2950   -2.5070    1.0570 Du       1 LIG       -0.1051
      2 C             1.3910   -1.4520    1.0310 Du       1 LIG        0.3519
      3 O             1.3320   -0.7480    2.2900 Du       1 LIG       -0.4544
      4 C             2.3970    0.0500    2.5870 Du       1 LIG        0.6471
      5 O             3.3160   -0.2190    3.3490 Du       1 LIG       -0.5390
      6 C             2.2820    1.3390    1.8330 Du       1 LIG       -0.1501
      7 O             1.1510   -0.5550   -0.0730 Du       1 LIG       -0.4544
      8 C             2.2320    0.0810   -0.6070 Du       1 LIG        0.6471
      9 O             3.3940   -0.3010   -0.5740 Du       1 LIG       -0.5390
     10 C             1.7880    1.3530   -1.2620 Du       1 LIG       -0.1501
     11 H             0.6610   -3.4610    0.6650 Du       1 LIG        0.0603
     12 H            -0.5780   -2.1920    0.4780 Du       1 LIG        0.0603
     13 H            -0.0420   -2.6840    2.0850 Du       1 LIG        0.0603
     14 H             2.3730   -1.9330    0.9430 Du       1 LIG        0.1007
     15 H             2.2600    2.1780    2.5330 Du       1 LIG        0.0775
     16 H             3.1210    1.4390    1.1390 Du       1 LIG        0.0775
     17 H             1.3510    1.3410    1.2590 Du       1 LIG        0.0775
     18 H             2.5940    2.0900   -1.2270 Du       1 LIG        0.0775
     19 H             1.4910    1.1550   -2.2950 Du       1 LIG        0.0775
     20 H             0.9240    1.7560   -0.7250 Du       1 LIG        0.0775
@<TRIPOS>SUBSTRUCTURE
     1 LIG         1  RESIDUE
