@<TRIPOS>MOLECULE
Molecule: 1
   24     0     1     0     0
SMALL
GASTEIGER


@<TRIPOS>ATOM
      1 C             0.1360   -2.7140    1.0780 Du       1 LIG       -0.0738
      2 C             0.9790   -1.4740    1.1630 Du       1 LIG       -0.0403
      3 C             1.7070   -1.2020    2.2560 Du       1 LIG       -0.2621
      4 C             2.4900    0.0530    2.3480 Du       1 LIG        0.5694
      5 O             3.1580    0.2810    3.3560 Du       1 LIG       -0.5380
      6 C             2.3870    1.0610    1.2230 Du       1 LIG       -0.1753
      7 C             2.1420    0.3970   -0.1420 Du       1 LIG       -0.0439
      8 C             0.9390   -0.5680   -0.0430 Du       1 LIG       -0.0541
      9 C             3.4060   -0.3590   -0.6040 Du       1 LIG       -0.0905
     10 C             1.8310    1.4850   -1.1860 Du       1 LIG       -0.0905
     11 H             0.7130   -3.5360    0.6470 Du       1 LIG        0.0508
     12 H            -0.7420   -2.5340    0.4510 Du       1 LIG        0.0508
     13 H            -0.2070   -3.0080    2.0730 Du       1 LIG        0.0508
     14 H             1.7310   -1.8660    3.1130 Du       1 LIG        0.1491
     15 H             1.5690    1.7460    1.4770 Du       1 LIG        0.0728
     16 H             3.3160    1.6440    1.1980 Du       1 LIG        0.0728
     17 H             0.0000    0.0000    0.0000 Du       1 LIG        0.0583
     18 H             0.8940   -1.1750   -0.9560 Du       1 LIG        0.0583
     19 H             3.2110   -0.8180   -1.5660 Du       1 LIG        0.0392
     20 H             3.6470   -1.1210    0.1270 Du       1 LIG        0.0392
     21 H             4.2260    0.3440   -0.6890 Du       1 LIG        0.0392
     22 H             1.6580    1.0170   -2.1490 Du       1 LIG        0.0392
     23 H             2.6740    2.1640   -1.2560 Du       1 LIG        0.0392
     24 H             0.9450    2.0310   -0.8800 Du       1 LIG        0.0392
@<TRIPOS>SUBSTRUCTURE
     1 LIG         1  RESIDUE
