@<TRIPOS>MOLECULE
Molecule: 1
   18     0     1     0     0
SMALL
GASTEIGER


@<TRIPOS>ATOM
      1 C             1.3610   -2.1340   -2.1490 Du       1 LIG        0.1146
      2 O             1.9460   -1.0260   -1.4740 Du       1 LIG       -0.3520
      3 C             1.8850   -1.0360   -0.1120 Du       1 LIG        0.0230
      4 C             2.9210   -1.6310    0.6080 Du       1 LIG       -0.1041
      5 C             2.8780   -1.6520    2.0020 Du       1 LIG       -0.1641
      6 C             1.8000   -1.0790    2.6760 Du       1 LIG       -0.0991
      7 C             0.7640   -0.4840    1.9550 Du       1 LIG       -0.1831
      8 C             0.8070   -0.4630    0.5610 Du       1 LIG        0.1295
      9 N            -0.2490    0.1420   -0.1560 Du       1 LIG       -0.8103
     10 H             1.4760   -2.0050   -3.2280 Du       1 LIG        0.0400
     11 H             0.3010   -2.2010   -1.8900 Du       1 LIG        0.0400
     12 H             1.8690   -3.0490   -1.8380 Du       1 LIG        0.0400
     13 H             3.7640   -2.0790    0.0900 Du       1 LIG        0.1409
     14 H             3.6850   -2.1140    2.5630 Du       1 LIG        0.1339
     15 H             1.7670   -1.0950    3.7610 Du       1 LIG        0.1309
     16 H            -0.0720   -0.0400    2.4910 Du       1 LIG        0.1339
     17 H            -0.1920    0.1970   -1.1520 Du       1 LIG        0.3927
     18 H            -0.9870    0.5870    0.3500 Du       1 LIG        0.3927
@<TRIPOS>SUBSTRUCTURE
     1 LIG         1  RESIDUE
