@<TRIPOS>MOLECULE
Molecule: 1
   20     0     1     0     0
SMALL
GASTEIGER


@<TRIPOS>ATOM
      1 C            -0.0600    0.4470   -0.0880 Du       1 LIG       -0.1051
      2 C             1.1520   -0.1670    0.5990 Du       1 LIG        0.3519
      3 O             1.5760   -1.2840   -0.2110 Du       1 LIG       -0.4544
      4 C             1.8090   -1.0220   -1.5280 Du       1 LIG        0.6471
      5 O             2.3250   -0.0120   -1.9880 Du       1 LIG       -0.5390
      6 C             1.3320   -2.1730   -2.3590 Du       1 LIG       -0.1501
      7 O             0.7710   -0.6030    1.9190 Du       1 LIG       -0.4544
      8 C             1.7670   -1.0260    2.7490 Du       1 LIG        0.6471
      9 O             1.8890   -0.7600    3.9370 Du       1 LIG       -0.5390
     10 C             2.7210   -1.8890    1.9820 Du       1 LIG       -0.1501
     11 H             0.0900    1.5170   -0.2620 Du       1 LIG        0.0603
     12 H            -0.9700    0.3030    0.5030 Du       1 LIG        0.0603
     13 H            -0.2270   -0.0230   -1.0630 Du       1 LIG        0.0603
     14 H             1.9670    0.5640    0.6430 Du       1 LIG        0.1007
     15 H             1.4910   -1.9580   -3.4180 Du       1 LIG        0.0775
     16 H             1.8600   -3.0850   -2.0680 Du       1 LIG        0.0775
     17 H             0.2610   -2.3210   -2.1920 Du       1 LIG        0.0775
     18 H             3.5790   -2.1410    2.6090 Du       1 LIG        0.0775
     19 H             2.2120   -2.7930    1.6420 Du       1 LIG        0.0775
     20 H             3.0800   -1.3420    1.1050 Du       1 LIG        0.0775
@<TRIPOS>SUBSTRUCTURE
     1 LIG         1  RESIDUE
