@<TRIPOS>MOLECULE
Molecule: 1
   20     0     1     0     0
SMALL
GASTEIGER


@<TRIPOS>ATOM
      1 C            -0.2200    0.1200    2.6110 Du       1 LIG       -0.1051
      2 C             0.7130   -0.8010    1.8370 Du       1 LIG        0.3519
      3 O             1.8400   -1.0790    2.6940 Du       1 LIG       -0.4544
      4 C             2.4970   -2.2520    2.4670 Du       1 LIG        0.6471
      5 O             2.0160   -3.2760    2.0040 Du       1 LIG       -0.5390
      6 C             3.9310   -2.1090    2.8780 Du       1 LIG       -0.1501
      7 O             1.1340   -0.1340    0.6300 Du       1 LIG       -0.4544
      8 C             1.8590   -0.8620   -0.2660 Du       1 LIG        0.6471
      9 O             1.4480   -1.3580   -1.3060 Du       1 LIG       -0.5390
     10 C             3.2740   -0.9740    0.2130 Du       1 LIG       -0.1501
     11 H            -1.1680    0.2520    2.0800 Du       1 LIG        0.0603
     12 H             0.2360    1.0990    2.7810 Du       1 LIG        0.0603
     13 H            -0.4520   -0.3070    3.5930 Du       1 LIG        0.0603
     14 H             0.2030   -1.7450    1.6100 Du       1 LIG        0.1007
     15 H             4.0880   -2.5860    3.8490 Du       1 LIG        0.0775
     16 H             4.5800   -2.5560    2.1200 Du       1 LIG        0.0775
     17 H             4.1790   -1.0480    2.9690 Du       1 LIG        0.0775
     18 H             3.5600   -2.0270    0.2800 Du       1 LIG        0.0775
     19 H             3.9390   -0.4360   -0.4650 Du       1 LIG        0.0775
     20 H             3.3570   -0.5280    1.2080 Du       1 LIG        0.0775
@<TRIPOS>SUBSTRUCTURE
     1 LIG         1  RESIDUE
