@<TRIPOS>MOLECULE
Molecule: 1
   13     0     1     0     0
SMALL
GASTEIGER


@<TRIPOS>ATOM
      1 C             1.8850   -1.0360   -0.1120 Du       1 LIG       -0.0829
      2 C             2.9210   -1.6310    0.6080 Du       1 LIG       -0.2139
      3 C             2.8780   -1.6520    2.0020 Du       1 LIG        0.1332
      4 C             1.8000   -1.0790    2.6760 Du       1 LIG       -0.1539
      5 C             0.7640   -0.4840    1.9550 Du       1 LIG        0.0505
      6 C             0.8070   -0.4630    0.5610 Du       1 LIG       -0.1609
      7 CL           -0.5670    0.2240    2.7850 Du       1 LIG       -0.0893
      8 O             3.8890   -2.2320    2.7050 Du       1 LIG       -0.4940
      9 H             1.9190   -1.0200   -1.1980 Du       1 LIG        0.1391
     10 H             3.7590   -2.0760    0.0780 Du       1 LIG        0.1371
     11 H             1.7740   -1.0990    3.7630 Du       1 LIG        0.1651
     12 H             0.0070   -0.0020   -0.0140 Du       1 LIG        0.1491
     13 H             4.5620   -2.5830    2.1000 Du       1 LIG        0.4211
@<TRIPOS>SUBSTRUCTURE
     1 LIG         1  RESIDUE
