@<TRIPOS>MOLECULE
Molecule: 1
   20     0     1     0     0
SMALL
GASTEIGER


@<TRIPOS>ATOM
      1 C            -0.6020   -2.4270    0.6970 Du       1 LIG       -0.1051
      2 C             0.4830   -1.6500    1.4300 Du       1 LIG        0.3519
      3 O            -0.0750   -1.2360    2.6960 Du       1 LIG       -0.4544
      4 C             0.7610   -0.5610    3.5340 Du       1 LIG        0.6471
      5 O             1.9590   -0.7610    3.6800 Du       1 LIG       -0.5390
      6 C            -0.0110    0.4880    4.2740 Du       1 LIG       -0.1501
      7 O             0.8590   -0.5080    0.6350 Du       1 LIG       -0.4544
      8 C             1.9320    0.2200    1.0560 Du       1 LIG        0.6471
      9 O             3.1120   -0.0700    0.9130 Du       1 LIG       -0.5390
     10 C             1.4520    1.4630    1.7400 Du       1 LIG       -0.1501
     11 H            -0.2170   -2.8470   -0.2370 Du       1 LIG        0.0603
     12 H            -1.4670   -1.7950    0.4770 Du       1 LIG        0.0603
     13 H            -0.9560   -3.2630    1.3110 Du       1 LIG        0.0603
     14 H             1.3440   -2.3000    1.6230 Du       1 LIG        0.1007
     15 H            -0.4020    0.0720    5.2050 Du       1 LIG        0.0775
     16 H             0.6330    1.3480    4.4760 Du       1 LIG        0.0775
     17 H            -0.8530    0.8180    3.6600 Du       1 LIG        0.0775
     18 H             2.0490    1.6470    2.6370 Du       1 LIG        0.0775
     19 H             1.5150    2.3120    1.0550 Du       1 LIG        0.0775
     20 H             0.4080    1.3340    2.0380 Du       1 LIG        0.0775
@<TRIPOS>SUBSTRUCTURE
     1 LIG         1  RESIDUE
